INPUT_FILES/9bus/tests_june/line_data.csv
fbus;tbus;r;x;b;rateA;rateB;rateC;ratio;angle;status;angmin;angmax
1;4;0;0.0576;0;250;250;250;1;0;1;-60;60
2;7;0;0.0625;0;250;250;250;1;0;1;-60;60
3;9;0;0.0586;0;300;300;300;1;0;1;-60;60
4;5;0;0.085;0;250;250;250;1;0;1;-60;60
4;6;0;0.092;0;250;250;250;1;0;1;-60;60
5;7;0;0.161;0;250;250;250;1;0;1;-60;60
6;9;0;0.17;0;150;150;150;1;0;1;-60;60
7;8;0;0.072;0;250;250;250;1;0;1;-60;60
8;9;0;0.1008;0;150;150;150;1;0;1;-60;60
